REMARK  Name = 2244
REMARK  5 active torsions:
REMARK  status: ('A' for Active; 'I' for Inactive)
REMARK    1  A    between atoms: O_1  and  C_5
REMARK    2  A    between atoms: O_1  and  C_12
REMARK    3  A    between atoms: O_2  and  C_11
REMARK    4  A    between atoms: C_6  and  C_11
REMARK    5  A    between atoms: C_12  and  C_13
REMARK                            x       y       z     vdW  Elec       q    Type
REMARK                         _______ _______ _______ _____ _____    ______ ____
ROOT
ATOM      1  C   UNL A   1       0.267  -1.270  -0.270  0.00  0.00    +0.119 A 
ATOM      2  C   UNL A   1       0.530  -2.434   0.468  0.00  0.00    +0.133 A 
ATOM      3  C   UNL A   1      -0.794  -1.240  -1.179  0.00  0.00    +0.097 A 
ATOM      4  C   UNL A   1      -0.234  -3.586   0.230  0.00  0.00    +0.079 A 
ATOM      5  C   UNL A   1      -1.556  -2.389  -1.398  0.00  0.00    +0.023 A 
ATOM      6  C   UNL A   1      -1.273  -3.563  -0.701  0.00  0.00    +0.017 A 
ENDROOT
BRANCH   2   8
ATOM      7  O   UNL A   1       2.210  -3.559   1.718  0.00  0.00    -0.320 OA
ATOM      8  C   UNL A   1       1.591  -2.533   1.501  0.00  0.00    +0.273 C 
BRANCH   8   9
ATOM      9  O   UNL A   1       1.742  -1.413   2.241  0.00  0.00    -0.500 OA
ATOM     10  H   UNL A   1       1.137  -0.689   1.991  0.00  0.00    +0.363 HD
ENDBRANCH   8   9
ENDBRANCH   2   8
BRANCH   1  11
ATOM     11  O   UNL A   1       1.054  -0.121  -0.022  0.00  0.00    -0.466 OA
BRANCH  11  13
ATOM     12  O   UNL A   1       1.158   0.593  -2.253  0.00  0.00    -0.338 OA
ATOM     13  C   UNL A   1       1.441   0.722  -1.073  0.00  0.00    +0.225 C 
ATOM     14  C   UNL A   1       2.299   1.822  -0.523  0.00  0.00    +0.296 C 
ENDBRANCH  11  13
ENDBRANCH   1  11
TORSDOF 4
