@<TRIPOS>MOLECULE
2244
 21 21 0 0 0
SMALL
GASTEIGER

@<TRIPOS>ATOM
      1 O           1.0728   -0.1289   -0.0298 O.3     1  UNL1       -0.4252
      2 O           1.7272   -1.4202    2.2537 O.3     1  UNL1       -0.4770
      3 O           2.1967   -3.5690    1.7398 O.2     1  UNL1       -0.2450
      4 O           1.1258    0.6226   -2.2518 O.2     1  UNL1       -0.2507
      5 C           0.2771   -1.2748   -0.2713 C.ar    1  UNL1        0.1456
      6 C           0.5328   -2.4399    0.4695 C.ar    1  UNL1        0.1010
      7 C          -0.7843   -1.2407   -1.1796 C.ar    1  UNL1       -0.0184
      8 C          -0.2342   -3.5893    0.2300 C.ar    1  UNL1       -0.0442
      9 C          -1.5510   -2.3879   -1.3988 C.ar    1  UNL1       -0.0582
     10 C          -1.2710   -3.5628   -0.7039 C.ar    1  UNL1       -0.0608
     11 C           1.5834   -2.5409    1.5135 C.2     1  UNL1        0.3404
     12 C           1.4352    0.7319   -1.0745 C.2     1  UNL1        0.3092
     13 C           2.3006    1.8296   -0.5298 C.3     1  UNL1        0.0336
     14 H          -1.0275   -0.3399   -1.7358 H       1  UNL1        0.0654
     15 H          -0.0304   -4.5091    0.7776 H       1  UNL1        0.0627
     16 H          -2.3638   -2.3633   -2.1206 H       1  UNL1        0.0619
     17 H          -1.8639   -4.4566   -0.8848 H       1  UNL1        0.0618
     18 H           1.7988    2.3237    0.3061 H       1  UNL1        0.0342
     19 H           3.2633    1.4199   -0.2165 H       1  UNL1        0.0342
     20 H           2.4710    2.5744   -1.3128 H       1  UNL1        0.0342
     21 H           1.1268   -0.6954    1.9948 H       1  UNL1        0.2954
@<TRIPOS>BOND
     1     1     5    1
     2     1    12    1
     3     2    11    1
     4     2    21    1
     5     3    11    2
     6     4    12    2
     7     5     6   ar
     8     5     7   ar
     9     6     8   ar
    10     6    11    1
    11     7     9   ar
    12     7    14    1
    13     8    10   ar
    14     8    15    1
    15     9    10   ar
    16     9    16    1
    17    10    17    1
    18    12    13    1
    19    13    18    1
    20    13    19    1
    21    13    20    1
