REMARK  Name = 
REMARK  5 active torsions:
REMARK  status: ('A' for Active; 'I' for Inactive)
REMARK    1  A    between atoms: C_1  and  C_2
REMARK    2  A    between atoms: C_2  and  O_4
REMARK    3  A    between atoms: O_4  and  C_5
REMARK    4  A    between atoms: C_10  and  C_11
REMARK    5  A    between atoms: C_11  and  O_13
REMARK                            x       y       z     vdW  Elec       q    Type
REMARK                         _______ _______ _______ _____ _____    ______ ____
ROOT
ATOM      1  C   UNL     1       4.540   0.653   0.890  0.00  0.00    +0.000 A 
ATOM      2  C   UNL     1       5.257   0.921  -0.280  0.00  0.00    +0.000 A 
ATOM      3  C   UNL     1       6.642   1.077  -0.231  0.00  0.00    +0.000 A 
ATOM      4  C   UNL     1       7.320   0.938   0.978  0.00  0.00    +0.000 A 
ATOM      5  C   UNL     1       6.612   0.630   2.142  0.00  0.00    +0.000 A 
ATOM      6  C   UNL     1       5.219   0.471   2.106  0.00  0.00    +0.000 A 
ENDROOT
BRANCH   6   7
ATOM      7  C   UNL     1       4.550   0.132   3.390  0.00  0.00    +0.000 C 
ATOM      8  O   UNL     1       4.983   0.486   4.474  0.00  0.00    +0.000 OA
BRANCH   7   9
ATOM      9  O   UNL     1       3.472  -0.671   3.260  0.00  0.00    +0.000 OA
ATOM     10  H   UNL     1       3.275  -0.921   2.338  0.00  0.00    +0.000 HD
ENDBRANCH   7   9
ENDBRANCH   6   7
BRANCH   1  11
ATOM     11  O   UNL     1       3.135   0.497   0.859  0.00  0.00    +0.000 OA
BRANCH  11  13
ATOM     12  C   UNL     1       0.911   0.990   0.226  0.00  0.00    +0.000 C 
ATOM     13  C   UNL     1       2.356   1.366   0.084  0.00  0.00    +0.000 C 
ATOM     14  O   UNL     1       2.758   2.296  -0.599  0.00  0.00    +0.000 OA
ENDBRANCH  11  13
ENDBRANCH   1  11
TORSDOF 4
