@<TRIPOS>MOLECULE
*****
 21 21 0 0 0
SMALL
GASTEIGER

@<TRIPOS>ATOM
      1 C           1.0171    0.2140   -0.9705 C.3     1  UNL1        0.0336
      2 C           2.4593    0.0061   -1.3276 C.2     1  UNL1        0.3092
      3 O           2.8554   -0.8089   -2.1457 O.2     1  UNL1       -0.2507
      4 O           3.2438    0.8998   -0.5877 O.3     1  UNL1       -0.4252
      5 C           4.6467    0.9052   -0.7573 C.ar    1  UNL1        0.1456
      6 C           5.3637   -0.2947   -0.8180 C.ar    1  UNL1       -0.0184
      7 C           6.7492   -0.2713   -0.9796 C.ar    1  UNL1       -0.0582
      8 C           7.4248    0.9448   -1.0570 C.ar    1  UNL1       -0.0608
      9 C           6.7158    2.1436   -0.9611 C.ar    1  UNL1       -0.0442
     10 C           5.3226    2.1348   -0.7940 C.ar    1  UNL1        0.1010
     11 C           4.6524    3.4560   -0.6833 C.2     1  UNL1        0.3404
     12 O           5.0970    4.4663   -1.2035 O.2     1  UNL1       -0.2450
     13 O           3.5600    3.4656    0.1098 O.3     1  UNL1       -0.4770
     14 H           0.4127   -0.5622   -1.4495 H       1  UNL1        0.0342
     15 H           0.6855    1.1912   -1.3281 H       1  UNL1        0.0342
     16 H           0.8829    0.1314    0.1111 H       1  UNL1        0.0342
     17 H           4.8601   -1.2565   -0.7586 H       1  UNL1        0.0654
     18 H           7.3010   -1.2058   -1.0533 H       1  UNL1        0.0619
     19 H           8.5043    0.9605   -1.1907 H       1  UNL1        0.0618
     20 H           7.2557    3.0885   -1.0140 H       1  UNL1        0.0627
     21 H           3.3532    2.5988    0.5076 H       1  UNL1        0.2954
@<TRIPOS>BOND
     1     1     2    1
     2     2     3    2
     3     2     4    1
     4     4     5    1
     5     5     6   ar
     6     6     7   ar
     7     7     8   ar
     8     8     9   ar
     9     9    10   ar
    10     5    10   ar
    11    10    11    1
    12    11    12    2
    13    11    13    1
    14     1    14    1
    15     1    15    1
    16     1    16    1
    17     6    17    1
    18     7    18    1
    19     8    19    1
    20     9    20    1
    21    13    21    1
