REMARK  Name = 2244
REMARK  5 active torsions:
REMARK  status: ('A' for Active; 'I' for Inactive)
REMARK    1  A    between atoms: O_1  and  C_5
REMARK    2  A    between atoms: O_1  and  C_12
REMARK    3  A    between atoms: O_2  and  C_11
REMARK    4  A    between atoms: C_6  and  C_11
REMARK    5  A    between atoms: C_12  and  C_13
REMARK                            x       y       z     vdW  Elec       q    Type
REMARK                         _______ _______ _______ _____ _____    ______ ____
ROOT
ATOM      1  C   UNL     1       0.242  -0.869   0.822  0.00  0.00    +0.000 A 
ATOM      2  C   UNL     1       0.529  -1.054   2.183  0.00  0.00    +0.000 A 
ATOM      3  C   UNL     1      -0.866  -1.497   0.248  0.00  0.00    +0.000 A 
ATOM      4  C   UNL     1      -0.253  -1.938   2.940  0.00  0.00    +0.000 A 
ATOM      5  C   UNL     1      -1.649  -2.364   1.016  0.00  0.00    +0.000 A 
ATOM      6  C   UNL     1      -1.341  -2.591   2.354  0.00  0.00    +0.000 A 
ENDROOT
BRANCH   2   8
ATOM      7  O   UNL     1       2.268  -0.869   3.793  0.00  0.00    +0.000 OA
ATOM      8  C   UNL     1       1.629  -0.356   2.892  0.00  0.00    +0.000 C 
BRANCH   8   9
ATOM      9  O   UNL     1       1.789   0.931   2.516  0.00  0.00    +0.000 OA
ATOM     10  H   UNL     1       1.163   1.222   1.826  0.00  0.00    +0.000 HD
ENDBRANCH   8   9
ENDBRANCH   2   8
BRANCH   1  11
ATOM     11  O   UNL     1       1.054   0.015   0.073  0.00  0.00    +0.000 OA
BRANCH  11  13
ATOM     12  O   UNL     1       1.020  -1.236  -1.911  0.00  0.00    +0.000 OA
ATOM     13  C   UNL     1       1.377  -0.264  -1.262  0.00  0.00    +0.000 C 
ATOM     14  C   UNL     1       2.277   0.814  -1.786  0.00  0.00    +0.000 C 
ENDBRANCH  11  13
ENDBRANCH   1  11
TORSDOF 4
