@<TRIPOS>MOLECULE
2244
 21 21 0 0 0
SMALL
GASTEIGER

@<TRIPOS>ATOM
      1 O           1.1440    0.0515    0.0105 O.3     1  UNL1       -0.4252
      2 O           1.7001   -2.5091    0.7444 O.3     1  UNL1       -0.4770
      3 O           2.3021   -3.6255   -1.1261 O.2     1  UNL1       -0.2450
      4 O           1.2892    2.1373   -1.0535 O.2     1  UNL1       -0.2507
      5 C           0.3901   -0.5776   -1.0075 C.ar    1  UNL1        0.1456
      6 C           0.6454   -1.9290   -1.3013 C.ar    1  UNL1        0.1010
      7 C          -0.6346    0.1005   -1.6745 C.ar    1  UNL1       -0.0184
      8 C          -0.0760   -2.5582   -2.3246 C.ar    1  UNL1       -0.0442
      9 C          -1.3570   -0.5429   -2.6810 C.ar    1  UNL1       -0.0582
     10 C          -1.0718   -1.8655   -3.0143 C.ar    1  UNL1       -0.0608
     11 C           1.6507   -2.7507   -0.5833 C.2     1  UNL1        0.3404
     12 C           1.5371    1.3896   -0.1188 C.2     1  UNL1        0.3092
     13 C           2.3456    1.7849    1.0807 C.3     1  UNL1        0.0336
     14 H          -0.8794    1.1319   -1.4365 H       1  UNL1        0.0654
     15 H           0.1318   -3.5959   -2.5821 H       1  UNL1        0.0627
     16 H          -2.1392   -0.0046   -3.2119 H       1  UNL1        0.0619
     17 H          -1.6292   -2.3595   -3.8071 H       1  UNL1        0.0618
     18 H           1.7918    1.5654    1.9971 H       1  UNL1        0.0342
     19 H           3.3034    1.2597    1.0706 H       1  UNL1        0.0342
     20 H           2.5336    2.8626    1.0471 H       1  UNL1        0.0342
     21 H           1.0747   -1.8232    1.0466 H       1  UNL1        0.2954
@<TRIPOS>BOND
     1     1     5    1
     2     1    12    1
     3     2    11    1
     4     2    21    1
     5     3    11    2
     6     4    12    2
     7     5     6   ar
     8     5     7   ar
     9     6     8   ar
    10     6    11    1
    11     7     9   ar
    12     7    14    1
    13     8    10   ar
    14     8    15    1
    15     9    10   ar
    16     9    16    1
    17    10    17    1
    18    12    13    1
    19    13    18    1
    20    13    19    1
    21    13    20    1
