@<TRIPOS>MOLECULE
2244
 21 21 0 0 0
SMALL
GASTEIGER

@<TRIPOS>ATOM
      1 O           1.1588    0.1208    0.0360 O.3     1  UNL1       -0.4252
      2 O           1.8574    2.1671    1.6656 O.3     1  UNL1       -0.4770
      3 O           2.3011    1.2895    3.6997 O.2     1  UNL1       -0.2450
      4 O           1.1289   -1.9553   -1.0556 O.2     1  UNL1       -0.2507
      5 C           0.3285   -0.2550    1.1193 C.ar    1  UNL1        0.1456
      6 C           0.5893    0.2932    2.3852 C.ar    1  UNL1        0.1010
      7 C          -0.7707   -1.0981    0.9354 C.ar    1  UNL1       -0.0184
      8 C          -0.2128   -0.0751    3.4753 C.ar    1  UNL1       -0.0442
      9 C          -1.5724   -1.4447    2.0244 C.ar    1  UNL1       -0.0582
     10 C          -1.2901   -0.9430    3.2938 C.ar    1  UNL1       -0.0608
     11 C           1.6828    1.2600    2.6518 C.2     1  UNL1        0.3404
     12 C           1.4921   -0.7908   -0.9736 C.2     1  UNL1        0.3092
     13 C           2.4056   -0.1214   -1.9571 C.3     1  UNL1        0.0336
     14 H          -1.0173   -1.5036   -0.0423 H       1  UNL1        0.0654
     15 H          -0.0044    0.3217    4.4680 H       1  UNL1        0.0627
     16 H          -2.4172   -2.1152    1.8809 H       1  UNL1        0.0619
     17 H          -1.9124   -1.2231    4.1410 H       1  UNL1        0.0618
     18 H           1.9739    0.8271   -2.2859 H       1  UNL1        0.0342
     19 H           3.3858    0.0368   -1.5020 H       1  UNL1        0.0342
     20 H           2.5207   -0.7636   -2.8356 H       1  UNL1        0.0342
     21 H           1.2474    2.0551    0.9123 H       1  UNL1        0.2954
@<TRIPOS>BOND
     1     1     5    1
     2     1    12    1
     3     2    11    1
     4     2    21    1
     5     3    11    2
     6     4    12    2
     7     5     6   ar
     8     5     7   ar
     9     6     8   ar
    10     6    11    1
    11     7     9   ar
    12     7    14    1
    13     8    10   ar
    14     8    15    1
    15     9    10   ar
    16     9    16    1
    17    10    17    1
    18    12    13    1
    19    13    18    1
    20    13    19    1
    21    13    20    1
