@<TRIPOS>MOLECULE
2244
 21 21 0 0 0
SMALL
GASTEIGER

@<TRIPOS>ATOM
      1 O           1.2095   -0.0979   -0.1068 O.3     1  UNL1       -0.4252
      2 O           1.7373   -2.0615   -1.8975 O.3     1  UNL1       -0.4770
      3 O           2.2449   -1.0802   -3.8668 O.2     1  UNL1       -0.2450
      4 O           1.4267    1.9211    1.0686 O.2     1  UNL1       -0.2507
      5 C           0.4234    0.4334   -1.1562 C.ar    1  UNL1        0.1456
      6 C           0.6359   -0.0349   -2.4612 C.ar    1  UNL1        0.1010
      7 C          -0.5934    1.3583   -0.9003 C.ar    1  UNL1       -0.0184
      8 C          -0.1259    0.4930   -3.5155 C.ar    1  UNL1       -0.0442
      9 C          -1.3536    1.8667   -1.9546 C.ar    1  UNL1       -0.0582
     10 C          -1.1151    1.4431   -3.2603 C.ar    1  UNL1       -0.0608
     11 C           1.6374   -1.0755   -2.8101 C.2     1  UNL1        0.3404
     12 C           1.6517    0.7269    0.9360 C.2     1  UNL1        0.3092
     13 C           2.4835   -0.0838    1.8844 C.3     1  UNL1        0.0336
     14 H          -0.8016    1.7061    0.1078 H       1  UNL1        0.0654
     15 H           0.0469    0.1586   -4.5370 H       1  UNL1        0.0627
     16 H          -2.1300    2.6023   -1.7547 H       1  UNL1        0.0619
     17 H          -1.7034    1.8488   -4.0804 H       1  UNL1        0.0618
     18 H           1.9309   -0.9697    2.2066 H       1  UNL1        0.0342
     19 H           3.4230   -0.3658    1.4045 H       1  UNL1        0.0342
     20 H           2.7061    0.5187    2.7711 H       1  UNL1        0.0342
     21 H           1.1444   -1.9550   -1.1298 H       1  UNL1        0.2954
@<TRIPOS>BOND
     1     1     5    1
     2     1    12    1
     3     2    11    1
     4     2    21    1
     5     3    11    2
     6     4    12    2
     7     5     6   ar
     8     5     7   ar
     9     6     8   ar
    10     6    11    1
    11     7     9   ar
    12     7    14    1
    13     8    10   ar
    14     8    15    1
    15     9    10   ar
    16     9    16    1
    17    10    17    1
    18    12    13    1
    19    13    18    1
    20    13    19    1
    21    13    20    1
