@<TRIPOS>MOLECULE
2244
 21 21 0 0 0
SMALL
GASTEIGER

@<TRIPOS>ATOM
      1 O           1.1002    0.0010   -0.1154 O.3     1  UNL1       -0.4252
      2 O           1.7173   -2.5571   -0.7536 O.3     1  UNL1       -0.4770
      3 O           2.2048   -2.6093   -2.9589 O.2     1  UNL1       -0.2450
      4 O           1.2008    2.3420   -0.0096 O.2     1  UNL1       -0.2507
      5 C           0.2969   -0.0636   -1.2774 C.ar    1  UNL1        0.1456
      6 C           0.5374   -1.0921   -2.2033 C.ar    1  UNL1        0.1010
      7 C          -0.7567    0.8285   -1.4807 C.ar    1  UNL1       -0.0184
      8 C          -0.2400   -1.1669   -3.3682 C.ar    1  UNL1       -0.0442
      9 C          -1.5344    0.7364   -2.6389 C.ar    1  UNL1       -0.0582
     10 C          -1.2718   -0.2536   -3.5847 C.ar    1  UNL1       -0.0608
     11 C           1.5847   -2.1270   -2.0258 C.2     1  UNL1        0.3404
     12 C           1.4895    1.2349    0.4201 C.2     1  UNL1        0.3092
     13 C           2.3561    0.9964    1.6207 C.3     1  UNL1        0.0336
     14 H          -0.9876    1.6102   -0.7623 H       1  UNL1        0.0654
     15 H          -0.0477   -1.9442   -4.1068 H       1  UNL1        0.0627
     16 H          -2.3439    1.4443   -2.8044 H       1  UNL1        0.0619
     17 H          -1.8737   -0.3170   -4.4892 H       1  UNL1        0.0618
     18 H           1.8532    0.3231    2.3194 H       1  UNL1        0.0342
     19 H           3.3164    0.5814    1.3063 H       1  UNL1        0.0342
     20 H           2.5312    1.9478    2.1322 H       1  UNL1        0.0342
     21 H           1.1131   -2.1203   -0.1239 H       1  UNL1        0.2954
@<TRIPOS>BOND
     1     1     5    1
     2     1    12    1
     3     2    11    1
     4     2    21    1
     5     3    11    2
     6     4    12    2
     7     5     6   ar
     8     5     7   ar
     9     6     8   ar
    10     6    11    1
    11     7     9   ar
    12     7    14    1
    13     8    10   ar
    14     8    15    1
    15     9    10   ar
    16     9    16    1
    17    10    17    1
    18    12    13    1
    19    13    18    1
    20    13    19    1
    21    13    20    1
